
---------- Begin Simulation Statistics ----------
simSeconds                                   0.000000                       # Number of seconds simulated (Second)
simTicks                                        22000                       # Number of ticks simulated (Tick)
finalTick                                       22000                       # Number of ticks from beginning of simulation (restored from checkpoints and never reset) (Tick)
simFreq                                  1000000000000                       # The number of ticks per simulated second ((Tick/Second))
hostSeconds                                      0.01                       # Real time elapsed on the host (Second)
hostTickRate                                  2309086                       # The number of ticks simulated per host second (ticks/s) ((Tick/Second))
hostMemory                                    8488248                       # Number of bytes of host memory used (Byte)
system.caches0.demandMisses::simplePEs0             1                       # number of demand (read+write) misses (Count)
system.caches0.demandMisses::total                  1                       # number of demand (read+write) misses (Count)
system.caches0.overallMisses::simplePEs0            1                       # number of overall misses (Count)
system.caches0.overallMisses::total                 1                       # number of overall misses (Count)
system.caches0.demandMissLatency::simplePEs0        20765                       # number of demand (read+write) miss ticks (Tick)
system.caches0.demandMissLatency::total         20765                       # number of demand (read+write) miss ticks (Tick)
system.caches0.overallMissLatency::simplePEs0        20765                       # number of overall miss ticks (Tick)
system.caches0.overallMissLatency::total        20765                       # number of overall miss ticks (Tick)
system.caches0.demandAccesses::simplePEs0            1                       # number of demand (read+write) accesses (Count)
system.caches0.demandAccesses::total                1                       # number of demand (read+write) accesses (Count)
system.caches0.overallAccesses::simplePEs0            1                       # number of overall (read+write) accesses (Count)
system.caches0.overallAccesses::total               1                       # number of overall (read+write) accesses (Count)
system.caches0.demandMissRate::simplePEs0            1                       # miss rate for demand accesses (Ratio)
system.caches0.demandMissRate::total                1                       # miss rate for demand accesses (Ratio)
system.caches0.overallMissRate::simplePEs0            1                       # miss rate for overall accesses (Ratio)
system.caches0.overallMissRate::total               1                       # miss rate for overall accesses (Ratio)
system.caches0.demandAvgMissLatency::simplePEs0        20765                       # average overall miss latency in ticks ((Tick/Count))
system.caches0.demandAvgMissLatency::total        20765                       # average overall miss latency in ticks ((Tick/Count))
system.caches0.overallAvgMissLatency::simplePEs0        20765                       # average overall miss latency ((Tick/Count))
system.caches0.overallAvgMissLatency::total        20765                       # average overall miss latency ((Tick/Count))
system.caches0.blockedCycles::no_mshrs              0                       # number of cycles access was blocked (Cycle)
system.caches0.blockedCycles::no_targets            0                       # number of cycles access was blocked (Cycle)
system.caches0.blockedCauses::no_mshrs              0                       # number of times access was blocked (Count)
system.caches0.blockedCauses::no_targets            0                       # number of times access was blocked (Count)
system.caches0.avgBlocked::no_mshrs               nan                       # average number of cycles each access was blocked ((Cycle/Count))
system.caches0.avgBlocked::no_targets             nan                       # average number of cycles each access was blocked ((Cycle/Count))
system.caches0.demandMshrMisses::simplePEs0            1                       # number of demand (read+write) MSHR misses (Count)
system.caches0.demandMshrMisses::total              1                       # number of demand (read+write) MSHR misses (Count)
system.caches0.overallMshrMisses::simplePEs0            1                       # number of overall MSHR misses (Count)
system.caches0.overallMshrMisses::total             1                       # number of overall MSHR misses (Count)
system.caches0.demandMshrMissLatency::simplePEs0        19765                       # number of demand (read+write) MSHR miss ticks (Tick)
system.caches0.demandMshrMissLatency::total        19765                       # number of demand (read+write) MSHR miss ticks (Tick)
system.caches0.overallMshrMissLatency::simplePEs0        19765                       # number of overall MSHR miss ticks (Tick)
system.caches0.overallMshrMissLatency::total        19765                       # number of overall MSHR miss ticks (Tick)
system.caches0.demandMshrMissRate::simplePEs0            1                       # mshr miss ratio for demand accesses (Ratio)
system.caches0.demandMshrMissRate::total            1                       # mshr miss ratio for demand accesses (Ratio)
system.caches0.overallMshrMissRate::simplePEs0            1                       # mshr miss ratio for overall accesses (Ratio)
system.caches0.overallMshrMissRate::total            1                       # mshr miss ratio for overall accesses (Ratio)
system.caches0.demandAvgMshrMissLatency::simplePEs0        19765                       # average overall mshr miss latency ((Tick/Count))
system.caches0.demandAvgMshrMissLatency::total        19765                       # average overall mshr miss latency ((Tick/Count))
system.caches0.overallAvgMshrMissLatency::simplePEs0        19765                       # average overall mshr miss latency ((Tick/Count))
system.caches0.overallAvgMshrMissLatency::total        19765                       # average overall mshr miss latency ((Tick/Count))
system.caches0.replacements                         0                       # number of replacements (Count)
system.caches0.ReadReq.misses::simplePEs0            1                       # number of ReadReq misses (Count)
system.caches0.ReadReq.misses::total                1                       # number of ReadReq misses (Count)
system.caches0.ReadReq.missLatency::simplePEs0        20765                       # number of ReadReq miss ticks (Tick)
system.caches0.ReadReq.missLatency::total        20765                       # number of ReadReq miss ticks (Tick)
system.caches0.ReadReq.accesses::simplePEs0            1                       # number of ReadReq accesses(hits+misses) (Count)
system.caches0.ReadReq.accesses::total              1                       # number of ReadReq accesses(hits+misses) (Count)
system.caches0.ReadReq.missRate::simplePEs0            1                       # miss rate for ReadReq accesses (Ratio)
system.caches0.ReadReq.missRate::total              1                       # miss rate for ReadReq accesses (Ratio)
system.caches0.ReadReq.avgMissLatency::simplePEs0        20765                       # average ReadReq miss latency ((Tick/Count))
system.caches0.ReadReq.avgMissLatency::total        20765                       # average ReadReq miss latency ((Tick/Count))
system.caches0.ReadReq.mshrMisses::simplePEs0            1                       # number of ReadReq MSHR misses (Count)
system.caches0.ReadReq.mshrMisses::total            1                       # number of ReadReq MSHR misses (Count)
system.caches0.ReadReq.mshrMissLatency::simplePEs0        19765                       # number of ReadReq MSHR miss ticks (Tick)
system.caches0.ReadReq.mshrMissLatency::total        19765                       # number of ReadReq MSHR miss ticks (Tick)
system.caches0.ReadReq.mshrMissRate::simplePEs0            1                       # mshr miss rate for ReadReq accesses (Ratio)
system.caches0.ReadReq.mshrMissRate::total            1                       # mshr miss rate for ReadReq accesses (Ratio)
system.caches0.ReadReq.avgMshrMissLatency::simplePEs0        19765                       # average ReadReq mshr miss latency ((Tick/Count))
system.caches0.ReadReq.avgMshrMissLatency::total        19765                       # average ReadReq mshr miss latency ((Tick/Count))
system.caches0.power_state.pwrStateResidencyTicks::UNDEFINED        22000                       # Cumulative time (in ticks) in various power states (Tick)
system.caches0.prefetcher.demandMshrMisses            1                       # demands not covered by prefetchs (Count)
system.caches0.prefetcher.pfIssued                  0                       # number of hwpf issued (Count)
system.caches0.prefetcher.pfUseful                  0                       # number of useful prefetch (Count)
system.caches0.prefetcher.pfUsefulButMiss            0                       # number of hit on prefetch but cache block is not in an usable state (Count)
system.caches0.prefetcher.accuracy                nan                       # accuracy of the prefetcher (Count)
system.caches0.prefetcher.coverage                  0                       # coverage brought by this prefetcher (Count)
system.caches0.prefetcher.pfHitInCache              0                       # number of prefetches hitting in cache (Count)
system.caches0.prefetcher.pfHitInMSHR               0                       # number of prefetches hitting in a MSHR (Count)
system.caches0.prefetcher.pfHitInWB                 0                       # number of prefetches hit in the Write Buffer (Count)
system.caches0.prefetcher.pfLate                    0                       # number of late prefetches (hitting in cache, MSHR or WB) (Count)
system.caches0.prefetcher.pfIdentified              0                       # number of prefetch candidates identified (Count)
system.caches0.prefetcher.pfBufferHit               0                       # number of redundant prefetches already in prefetch queue (Count)
system.caches0.prefetcher.pfInCache                 0                       # number of redundant prefetches already in cache/mshr dropped (Count)
system.caches0.prefetcher.pfRemovedDemand            0                       # number of prefetches dropped due to a demand for the same address (Count)
system.caches0.prefetcher.pfRemovedFull             0                       # number of prefetches dropped due to prefetch queue size (Count)
system.caches0.prefetcher.pfSpanPage                0                       # number of prefetches that crossed the page (Count)
system.caches0.prefetcher.pfUsefulSpanPage            0                       # number of prefetches that is useful and crossed the page (Count)
system.caches0.prefetcher.power_state.pwrStateResidencyTicks::UNDEFINED        22000                       # Cumulative time (in ticks) in various power states (Tick)
system.caches0.tags.tagsInUse                0.045498                       # Average ticks per tags in use ((Tick/Count))
system.caches0.tags.totalRefs                       1                       # Total number of references to valid blocks. (Count)
system.caches0.tags.sampledRefs                     1                       # Sample count of references to valid blocks. (Count)
system.caches0.tags.avgRefs                         1                       # Average number of references to valid blocks. ((Count/Count))
system.caches0.tags.warmupTick                  21000                       # The tick when the warmup percentage was hit. (Tick)
system.caches0.tags.occupancies::simplePEs0     0.045498                       # Average occupied blocks per tick, per requestor ((Count/Tick))
system.caches0.tags.avgOccs::simplePEs0      0.000044                       # Average percentage of cache occupancy ((Ratio/Tick))
system.caches0.tags.avgOccs::total           0.000044                       # Average percentage of cache occupancy ((Ratio/Tick))
system.caches0.tags.occupanciesTaskId::1024            1                       # Occupied blocks per task id (Count)
system.caches0.tags.ageTaskId_1024::0               1                       # Occupied blocks per task id, per block age (Count)
system.caches0.tags.ratioOccsTaskId::1024     0.000977                       # Ratio of occupied blocks and all blocks, per task id (Ratio)
system.caches0.tags.tagAccesses                     9                       # Number of tag accesses (Count)
system.caches0.tags.dataAccesses                    9                       # Number of data accesses (Count)
system.caches0.tags.power_state.pwrStateResidencyTicks::UNDEFINED        22000                       # Cumulative time (in ticks) in various power states (Tick)
system.caches1.demandMisses::simplePEs1             1                       # number of demand (read+write) misses (Count)
system.caches1.demandMisses::total                  1                       # number of demand (read+write) misses (Count)
system.caches1.overallMisses::simplePEs1            1                       # number of overall misses (Count)
system.caches1.overallMisses::total                 1                       # number of overall misses (Count)
system.caches1.demandMissLatency::simplePEs1        10999                       # number of demand (read+write) miss ticks (Tick)
system.caches1.demandMissLatency::total         10999                       # number of demand (read+write) miss ticks (Tick)
system.caches1.overallMissLatency::simplePEs1        10999                       # number of overall miss ticks (Tick)
system.caches1.overallMissLatency::total        10999                       # number of overall miss ticks (Tick)
system.caches1.demandAccesses::simplePEs1            1                       # number of demand (read+write) accesses (Count)
system.caches1.demandAccesses::total                1                       # number of demand (read+write) accesses (Count)
system.caches1.overallAccesses::simplePEs1            1                       # number of overall (read+write) accesses (Count)
system.caches1.overallAccesses::total               1                       # number of overall (read+write) accesses (Count)
system.caches1.demandMissRate::simplePEs1            1                       # miss rate for demand accesses (Ratio)
system.caches1.demandMissRate::total                1                       # miss rate for demand accesses (Ratio)
system.caches1.overallMissRate::simplePEs1            1                       # miss rate for overall accesses (Ratio)
system.caches1.overallMissRate::total               1                       # miss rate for overall accesses (Ratio)
system.caches1.demandAvgMissLatency::simplePEs1        10999                       # average overall miss latency in ticks ((Tick/Count))
system.caches1.demandAvgMissLatency::total        10999                       # average overall miss latency in ticks ((Tick/Count))
system.caches1.overallAvgMissLatency::simplePEs1        10999                       # average overall miss latency ((Tick/Count))
system.caches1.overallAvgMissLatency::total        10999                       # average overall miss latency ((Tick/Count))
system.caches1.blockedCycles::no_mshrs              0                       # number of cycles access was blocked (Cycle)
system.caches1.blockedCycles::no_targets            0                       # number of cycles access was blocked (Cycle)
system.caches1.blockedCauses::no_mshrs              0                       # number of times access was blocked (Count)
system.caches1.blockedCauses::no_targets            0                       # number of times access was blocked (Count)
system.caches1.avgBlocked::no_mshrs               nan                       # average number of cycles each access was blocked ((Cycle/Count))
system.caches1.avgBlocked::no_targets             nan                       # average number of cycles each access was blocked ((Cycle/Count))
system.caches1.demandMshrMisses::simplePEs1            1                       # number of demand (read+write) MSHR misses (Count)
system.caches1.demandMshrMisses::total              1                       # number of demand (read+write) MSHR misses (Count)
system.caches1.overallMshrMisses::simplePEs1            1                       # number of overall MSHR misses (Count)
system.caches1.overallMshrMisses::total             1                       # number of overall MSHR misses (Count)
system.caches1.demandMshrMissLatency::simplePEs1         9999                       # number of demand (read+write) MSHR miss ticks (Tick)
system.caches1.demandMshrMissLatency::total         9999                       # number of demand (read+write) MSHR miss ticks (Tick)
system.caches1.overallMshrMissLatency::simplePEs1         9999                       # number of overall MSHR miss ticks (Tick)
system.caches1.overallMshrMissLatency::total         9999                       # number of overall MSHR miss ticks (Tick)
system.caches1.demandMshrMissRate::simplePEs1            1                       # mshr miss ratio for demand accesses (Ratio)
system.caches1.demandMshrMissRate::total            1                       # mshr miss ratio for demand accesses (Ratio)
system.caches1.overallMshrMissRate::simplePEs1            1                       # mshr miss ratio for overall accesses (Ratio)
system.caches1.overallMshrMissRate::total            1                       # mshr miss ratio for overall accesses (Ratio)
system.caches1.demandAvgMshrMissLatency::simplePEs1         9999                       # average overall mshr miss latency ((Tick/Count))
system.caches1.demandAvgMshrMissLatency::total         9999                       # average overall mshr miss latency ((Tick/Count))
system.caches1.overallAvgMshrMissLatency::simplePEs1         9999                       # average overall mshr miss latency ((Tick/Count))
system.caches1.overallAvgMshrMissLatency::total         9999                       # average overall mshr miss latency ((Tick/Count))
system.caches1.replacements                         0                       # number of replacements (Count)
system.caches1.WriteLineReq.misses::simplePEs1            1                       # number of WriteLineReq misses (Count)
system.caches1.WriteLineReq.misses::total            1                       # number of WriteLineReq misses (Count)
system.caches1.WriteLineReq.missLatency::simplePEs1        10999                       # number of WriteLineReq miss ticks (Tick)
system.caches1.WriteLineReq.missLatency::total        10999                       # number of WriteLineReq miss ticks (Tick)
system.caches1.WriteLineReq.accesses::simplePEs1            1                       # number of WriteLineReq accesses(hits+misses) (Count)
system.caches1.WriteLineReq.accesses::total            1                       # number of WriteLineReq accesses(hits+misses) (Count)
system.caches1.WriteLineReq.missRate::simplePEs1            1                       # miss rate for WriteLineReq accesses (Ratio)
system.caches1.WriteLineReq.missRate::total            1                       # miss rate for WriteLineReq accesses (Ratio)
system.caches1.WriteLineReq.avgMissLatency::simplePEs1        10999                       # average WriteLineReq miss latency ((Tick/Count))
system.caches1.WriteLineReq.avgMissLatency::total        10999                       # average WriteLineReq miss latency ((Tick/Count))
system.caches1.WriteLineReq.mshrMisses::simplePEs1            1                       # number of WriteLineReq MSHR misses (Count)
system.caches1.WriteLineReq.mshrMisses::total            1                       # number of WriteLineReq MSHR misses (Count)
system.caches1.WriteLineReq.mshrMissLatency::simplePEs1         9999                       # number of WriteLineReq MSHR miss ticks (Tick)
system.caches1.WriteLineReq.mshrMissLatency::total         9999                       # number of WriteLineReq MSHR miss ticks (Tick)
system.caches1.WriteLineReq.mshrMissRate::simplePEs1            1                       # mshr miss rate for WriteLineReq accesses (Ratio)
system.caches1.WriteLineReq.mshrMissRate::total            1                       # mshr miss rate for WriteLineReq accesses (Ratio)
system.caches1.WriteLineReq.avgMshrMissLatency::simplePEs1         9999                       # average WriteLineReq mshr miss latency ((Tick/Count))
system.caches1.WriteLineReq.avgMshrMissLatency::total         9999                       # average WriteLineReq mshr miss latency ((Tick/Count))
system.caches1.power_state.pwrStateResidencyTicks::UNDEFINED        22000                       # Cumulative time (in ticks) in various power states (Tick)
system.caches1.prefetcher.demandMshrMisses            1                       # demands not covered by prefetchs (Count)
system.caches1.prefetcher.pfIssued                  0                       # number of hwpf issued (Count)
system.caches1.prefetcher.pfUseful                  0                       # number of useful prefetch (Count)
system.caches1.prefetcher.pfUsefulButMiss            0                       # number of hit on prefetch but cache block is not in an usable state (Count)
system.caches1.prefetcher.accuracy                nan                       # accuracy of the prefetcher (Count)
system.caches1.prefetcher.coverage                  0                       # coverage brought by this prefetcher (Count)
system.caches1.prefetcher.pfHitInCache              0                       # number of prefetches hitting in cache (Count)
system.caches1.prefetcher.pfHitInMSHR               0                       # number of prefetches hitting in a MSHR (Count)
system.caches1.prefetcher.pfHitInWB                 0                       # number of prefetches hit in the Write Buffer (Count)
system.caches1.prefetcher.pfLate                    0                       # number of late prefetches (hitting in cache, MSHR or WB) (Count)
system.caches1.prefetcher.pfIdentified              0                       # number of prefetch candidates identified (Count)
system.caches1.prefetcher.pfBufferHit               0                       # number of redundant prefetches already in prefetch queue (Count)
system.caches1.prefetcher.pfInCache                 0                       # number of redundant prefetches already in cache/mshr dropped (Count)
system.caches1.prefetcher.pfRemovedDemand            0                       # number of prefetches dropped due to a demand for the same address (Count)
system.caches1.prefetcher.pfRemovedFull             0                       # number of prefetches dropped due to prefetch queue size (Count)
system.caches1.prefetcher.pfSpanPage                0                       # number of prefetches that crossed the page (Count)
system.caches1.prefetcher.pfUsefulSpanPage            0                       # number of prefetches that is useful and crossed the page (Count)
system.caches1.prefetcher.power_state.pwrStateResidencyTicks::UNDEFINED        22000                       # Cumulative time (in ticks) in various power states (Tick)
system.caches1.tags.tagsInUse                0.545475                       # Average ticks per tags in use ((Tick/Count))
system.caches1.tags.totalRefs                       1                       # Total number of references to valid blocks. (Count)
system.caches1.tags.sampledRefs                     1                       # Sample count of references to valid blocks. (Count)
system.caches1.tags.avgRefs                         1                       # Average number of references to valid blocks. ((Count/Count))
system.caches1.tags.warmupTick                  10000                       # The tick when the warmup percentage was hit. (Tick)
system.caches1.tags.occupancies::simplePEs1     0.545475                       # Average occupied blocks per tick, per requestor ((Count/Tick))
system.caches1.tags.avgOccs::simplePEs1      0.000533                       # Average percentage of cache occupancy ((Ratio/Tick))
system.caches1.tags.avgOccs::total           0.000533                       # Average percentage of cache occupancy ((Ratio/Tick))
system.caches1.tags.occupanciesTaskId::1024            1                       # Occupied blocks per task id (Count)
system.caches1.tags.ageTaskId_1024::0               1                       # Occupied blocks per task id, per block age (Count)
system.caches1.tags.ratioOccsTaskId::1024     0.000977                       # Ratio of occupied blocks and all blocks, per task id (Ratio)
system.caches1.tags.tagAccesses                     9                       # Number of tag accesses (Count)
system.caches1.tags.dataAccesses                    9                       # Number of data accesses (Count)
system.caches1.tags.power_state.pwrStateResidencyTicks::UNDEFINED        22000                       # Cumulative time (in ticks) in various power states (Tick)
system.clk_domain.clock                          1000                       # Clock period in ticks (Tick)
system.clk_domain.voltage_domain.voltage            1                       # Voltage in Volts (Volt)
system.global_mem.mem_ctrl.priorityMinLatency 0.000000000000                       # per QoS priority minimum request to response latency (Second)
system.global_mem.mem_ctrl.priorityMaxLatency 0.000000000000                       # per QoS priority maximum request to response latency (Second)
system.global_mem.mem_ctrl.numReadWriteTurnArounds            0                       # Number of turnarounds from READ to WRITE (Count)
system.global_mem.mem_ctrl.numWriteReadTurnArounds            0                       # Number of turnarounds from WRITE to READ (Count)
system.global_mem.mem_ctrl.numStayReadState            0                       # Number of times bus staying in READ state (Count)
system.global_mem.mem_ctrl.numStayWriteState            0                       # Number of times bus staying in WRITE state (Count)
system.global_mem.mem_ctrl.readReqs                 0                       # Number of read requests accepted (Count)
system.global_mem.mem_ctrl.writeReqs                0                       # Number of write requests accepted (Count)
system.global_mem.mem_ctrl.readBursts               0                       # Number of controller read bursts, including those serviced by the write queue (Count)
system.global_mem.mem_ctrl.writeBursts              0                       # Number of controller write bursts, including those merged in the write queue (Count)
system.global_mem.mem_ctrl.servicedByWrQ            0                       # Number of controller read bursts serviced by the write queue (Count)
system.global_mem.mem_ctrl.mergedWrBursts            0                       # Number of controller write bursts merged with an existing one (Count)
system.global_mem.mem_ctrl.neitherReadNorWriteReqs            0                       # Number of requests that are neither read nor write (Count)
system.global_mem.mem_ctrl.avgRdQLen             0.00                       # Average read queue length when enqueuing ((Count/Tick))
system.global_mem.mem_ctrl.avgWrQLen             0.00                       # Average write queue length when enqueuing ((Count/Tick))
system.global_mem.mem_ctrl.numRdRetry               0                       # Number of times read queue was full causing retry (Count)
system.global_mem.mem_ctrl.numWrRetry               0                       # Number of times write queue was full causing retry (Count)
system.global_mem.mem_ctrl.readPktSize::0            0                       # Read request sizes (log2) (Count)
system.global_mem.mem_ctrl.readPktSize::1            0                       # Read request sizes (log2) (Count)
system.global_mem.mem_ctrl.readPktSize::2            0                       # Read request sizes (log2) (Count)
system.global_mem.mem_ctrl.readPktSize::3            0                       # Read request sizes (log2) (Count)
system.global_mem.mem_ctrl.readPktSize::4            0                       # Read request sizes (log2) (Count)
system.global_mem.mem_ctrl.readPktSize::5            0                       # Read request sizes (log2) (Count)
system.global_mem.mem_ctrl.readPktSize::6            0                       # Read request sizes (log2) (Count)
system.global_mem.mem_ctrl.writePktSize::0            0                       # Write request sizes (log2) (Count)
system.global_mem.mem_ctrl.writePktSize::1            0                       # Write request sizes (log2) (Count)
system.global_mem.mem_ctrl.writePktSize::2            0                       # Write request sizes (log2) (Count)
system.global_mem.mem_ctrl.writePktSize::3            0                       # Write request sizes (log2) (Count)
system.global_mem.mem_ctrl.writePktSize::4            0                       # Write request sizes (log2) (Count)
system.global_mem.mem_ctrl.writePktSize::5            0                       # Write request sizes (log2) (Count)
system.global_mem.mem_ctrl.writePktSize::6            0                       # Write request sizes (log2) (Count)
system.global_mem.mem_ctrl.rdQLenPdf::0             0                       # What read queue length does an incoming req see (Count)
system.global_mem.mem_ctrl.rdQLenPdf::1             0                       # What read queue length does an incoming req see (Count)
system.global_mem.mem_ctrl.rdQLenPdf::2             0                       # What read queue length does an incoming req see (Count)
system.global_mem.mem_ctrl.rdQLenPdf::3             0                       # What read queue length does an incoming req see (Count)
system.global_mem.mem_ctrl.rdQLenPdf::4             0                       # What read queue length does an incoming req see (Count)
system.global_mem.mem_ctrl.rdQLenPdf::5             0                       # What read queue length does an incoming req see (Count)
system.global_mem.mem_ctrl.rdQLenPdf::6             0                       # What read queue length does an incoming req see (Count)
system.global_mem.mem_ctrl.rdQLenPdf::7             0                       # What read queue length does an incoming req see (Count)
system.global_mem.mem_ctrl.rdQLenPdf::8             0                       # What read queue length does an incoming req see (Count)
system.global_mem.mem_ctrl.rdQLenPdf::9             0                       # What read queue length does an incoming req see (Count)
system.global_mem.mem_ctrl.rdQLenPdf::10            0                       # What read queue length does an incoming req see (Count)
system.global_mem.mem_ctrl.rdQLenPdf::11            0                       # What read queue length does an incoming req see (Count)
system.global_mem.mem_ctrl.rdQLenPdf::12            0                       # What read queue length does an incoming req see (Count)
system.global_mem.mem_ctrl.rdQLenPdf::13            0                       # What read queue length does an incoming req see (Count)
system.global_mem.mem_ctrl.rdQLenPdf::14            0                       # What read queue length does an incoming req see (Count)
system.global_mem.mem_ctrl.rdQLenPdf::15            0                       # What read queue length does an incoming req see (Count)
system.global_mem.mem_ctrl.rdQLenPdf::16            0                       # What read queue length does an incoming req see (Count)
system.global_mem.mem_ctrl.rdQLenPdf::17            0                       # What read queue length does an incoming req see (Count)
system.global_mem.mem_ctrl.rdQLenPdf::18            0                       # What read queue length does an incoming req see (Count)
system.global_mem.mem_ctrl.rdQLenPdf::19            0                       # What read queue length does an incoming req see (Count)
system.global_mem.mem_ctrl.rdQLenPdf::20            0                       # What read queue length does an incoming req see (Count)
system.global_mem.mem_ctrl.rdQLenPdf::21            0                       # What read queue length does an incoming req see (Count)
system.global_mem.mem_ctrl.rdQLenPdf::22            0                       # What read queue length does an incoming req see (Count)
system.global_mem.mem_ctrl.rdQLenPdf::23            0                       # What read queue length does an incoming req see (Count)
system.global_mem.mem_ctrl.rdQLenPdf::24            0                       # What read queue length does an incoming req see (Count)
system.global_mem.mem_ctrl.rdQLenPdf::25            0                       # What read queue length does an incoming req see (Count)
system.global_mem.mem_ctrl.rdQLenPdf::26            0                       # What read queue length does an incoming req see (Count)
system.global_mem.mem_ctrl.rdQLenPdf::27            0                       # What read queue length does an incoming req see (Count)
system.global_mem.mem_ctrl.rdQLenPdf::28            0                       # What read queue length does an incoming req see (Count)
system.global_mem.mem_ctrl.rdQLenPdf::29            0                       # What read queue length does an incoming req see (Count)
system.global_mem.mem_ctrl.rdQLenPdf::30            0                       # What read queue length does an incoming req see (Count)
system.global_mem.mem_ctrl.rdQLenPdf::31            0                       # What read queue length does an incoming req see (Count)
system.global_mem.mem_ctrl.wrQLenPdf::0             0                       # What write queue length does an incoming req see (Count)
system.global_mem.mem_ctrl.wrQLenPdf::1             0                       # What write queue length does an incoming req see (Count)
system.global_mem.mem_ctrl.wrQLenPdf::2             0                       # What write queue length does an incoming req see (Count)
system.global_mem.mem_ctrl.wrQLenPdf::3             0                       # What write queue length does an incoming req see (Count)
system.global_mem.mem_ctrl.wrQLenPdf::4             0                       # What write queue length does an incoming req see (Count)
system.global_mem.mem_ctrl.wrQLenPdf::5             0                       # What write queue length does an incoming req see (Count)
system.global_mem.mem_ctrl.wrQLenPdf::6             0                       # What write queue length does an incoming req see (Count)
system.global_mem.mem_ctrl.wrQLenPdf::7             0                       # What write queue length does an incoming req see (Count)
system.global_mem.mem_ctrl.wrQLenPdf::8             0                       # What write queue length does an incoming req see (Count)
system.global_mem.mem_ctrl.wrQLenPdf::9             0                       # What write queue length does an incoming req see (Count)
system.global_mem.mem_ctrl.wrQLenPdf::10            0                       # What write queue length does an incoming req see (Count)
system.global_mem.mem_ctrl.wrQLenPdf::11            0                       # What write queue length does an incoming req see (Count)
system.global_mem.mem_ctrl.wrQLenPdf::12            0                       # What write queue length does an incoming req see (Count)
system.global_mem.mem_ctrl.wrQLenPdf::13            0                       # What write queue length does an incoming req see (Count)
system.global_mem.mem_ctrl.wrQLenPdf::14            0                       # What write queue length does an incoming req see (Count)
system.global_mem.mem_ctrl.wrQLenPdf::15            0                       # What write queue length does an incoming req see (Count)
system.global_mem.mem_ctrl.wrQLenPdf::16            0                       # What write queue length does an incoming req see (Count)
system.global_mem.mem_ctrl.wrQLenPdf::17            0                       # What write queue length does an incoming req see (Count)
system.global_mem.mem_ctrl.wrQLenPdf::18            0                       # What write queue length does an incoming req see (Count)
system.global_mem.mem_ctrl.wrQLenPdf::19            0                       # What write queue length does an incoming req see (Count)
system.global_mem.mem_ctrl.wrQLenPdf::20            0                       # What write queue length does an incoming req see (Count)
system.global_mem.mem_ctrl.wrQLenPdf::21            0                       # What write queue length does an incoming req see (Count)
system.global_mem.mem_ctrl.wrQLenPdf::22            0                       # What write queue length does an incoming req see (Count)
system.global_mem.mem_ctrl.wrQLenPdf::23            0                       # What write queue length does an incoming req see (Count)
system.global_mem.mem_ctrl.wrQLenPdf::24            0                       # What write queue length does an incoming req see (Count)
system.global_mem.mem_ctrl.wrQLenPdf::25            0                       # What write queue length does an incoming req see (Count)
system.global_mem.mem_ctrl.wrQLenPdf::26            0                       # What write queue length does an incoming req see (Count)
system.global_mem.mem_ctrl.wrQLenPdf::27            0                       # What write queue length does an incoming req see (Count)
system.global_mem.mem_ctrl.wrQLenPdf::28            0                       # What write queue length does an incoming req see (Count)
system.global_mem.mem_ctrl.wrQLenPdf::29            0                       # What write queue length does an incoming req see (Count)
system.global_mem.mem_ctrl.wrQLenPdf::30            0                       # What write queue length does an incoming req see (Count)
system.global_mem.mem_ctrl.wrQLenPdf::31            0                       # What write queue length does an incoming req see (Count)
system.global_mem.mem_ctrl.wrQLenPdf::32            0                       # What write queue length does an incoming req see (Count)
system.global_mem.mem_ctrl.wrQLenPdf::33            0                       # What write queue length does an incoming req see (Count)
system.global_mem.mem_ctrl.wrQLenPdf::34            0                       # What write queue length does an incoming req see (Count)
system.global_mem.mem_ctrl.wrQLenPdf::35            0                       # What write queue length does an incoming req see (Count)
system.global_mem.mem_ctrl.wrQLenPdf::36            0                       # What write queue length does an incoming req see (Count)
system.global_mem.mem_ctrl.wrQLenPdf::37            0                       # What write queue length does an incoming req see (Count)
system.global_mem.mem_ctrl.wrQLenPdf::38            0                       # What write queue length does an incoming req see (Count)
system.global_mem.mem_ctrl.wrQLenPdf::39            0                       # What write queue length does an incoming req see (Count)
system.global_mem.mem_ctrl.wrQLenPdf::40            0                       # What write queue length does an incoming req see (Count)
system.global_mem.mem_ctrl.wrQLenPdf::41            0                       # What write queue length does an incoming req see (Count)
system.global_mem.mem_ctrl.wrQLenPdf::42            0                       # What write queue length does an incoming req see (Count)
system.global_mem.mem_ctrl.wrQLenPdf::43            0                       # What write queue length does an incoming req see (Count)
system.global_mem.mem_ctrl.wrQLenPdf::44            0                       # What write queue length does an incoming req see (Count)
system.global_mem.mem_ctrl.wrQLenPdf::45            0                       # What write queue length does an incoming req see (Count)
system.global_mem.mem_ctrl.wrQLenPdf::46            0                       # What write queue length does an incoming req see (Count)
system.global_mem.mem_ctrl.wrQLenPdf::47            0                       # What write queue length does an incoming req see (Count)
system.global_mem.mem_ctrl.wrQLenPdf::48            0                       # What write queue length does an incoming req see (Count)
system.global_mem.mem_ctrl.wrQLenPdf::49            0                       # What write queue length does an incoming req see (Count)
system.global_mem.mem_ctrl.wrQLenPdf::50            0                       # What write queue length does an incoming req see (Count)
system.global_mem.mem_ctrl.wrQLenPdf::51            0                       # What write queue length does an incoming req see (Count)
system.global_mem.mem_ctrl.wrQLenPdf::52            0                       # What write queue length does an incoming req see (Count)
system.global_mem.mem_ctrl.wrQLenPdf::53            0                       # What write queue length does an incoming req see (Count)
system.global_mem.mem_ctrl.wrQLenPdf::54            0                       # What write queue length does an incoming req see (Count)
system.global_mem.mem_ctrl.wrQLenPdf::55            0                       # What write queue length does an incoming req see (Count)
system.global_mem.mem_ctrl.wrQLenPdf::56            0                       # What write queue length does an incoming req see (Count)
system.global_mem.mem_ctrl.wrQLenPdf::57            0                       # What write queue length does an incoming req see (Count)
system.global_mem.mem_ctrl.wrQLenPdf::58            0                       # What write queue length does an incoming req see (Count)
system.global_mem.mem_ctrl.wrQLenPdf::59            0                       # What write queue length does an incoming req see (Count)
system.global_mem.mem_ctrl.wrQLenPdf::60            0                       # What write queue length does an incoming req see (Count)
system.global_mem.mem_ctrl.wrQLenPdf::61            0                       # What write queue length does an incoming req see (Count)
system.global_mem.mem_ctrl.wrQLenPdf::62            0                       # What write queue length does an incoming req see (Count)
system.global_mem.mem_ctrl.wrQLenPdf::63            0                       # What write queue length does an incoming req see (Count)
system.global_mem.mem_ctrl.bytesReadWrQ             0                       # Total number of bytes read from write queue (Byte)
system.global_mem.mem_ctrl.bytesReadSys             0                       # Total read bytes from the system interface side (Byte)
system.global_mem.mem_ctrl.bytesWrittenSys            0                       # Total written bytes from the system interface side (Byte)
system.global_mem.mem_ctrl.avgRdBWSys      0.00000000                       # Average system read bandwidth in Byte/s ((Byte/Second))
system.global_mem.mem_ctrl.avgWrBWSys      0.00000000                       # Average system write bandwidth in Byte/s ((Byte/Second))
system.global_mem.mem_ctrl.totGap                   0                       # Total gap between requests (Tick)
system.global_mem.mem_ctrl.avgGap                 nan                       # Average gap between requests ((Tick/Count))
system.global_mem.mem_ctrl.dram.readBursts            0                       # Number of DRAM read bursts (Count)
system.global_mem.mem_ctrl.dram.writeBursts            0                       # Number of DRAM write bursts (Count)
system.global_mem.mem_ctrl.dram.perBankRdBursts::0            0                       # Per bank write bursts (Count)
system.global_mem.mem_ctrl.dram.perBankRdBursts::1            0                       # Per bank write bursts (Count)
system.global_mem.mem_ctrl.dram.perBankRdBursts::2            0                       # Per bank write bursts (Count)
system.global_mem.mem_ctrl.dram.perBankRdBursts::3            0                       # Per bank write bursts (Count)
system.global_mem.mem_ctrl.dram.perBankRdBursts::4            0                       # Per bank write bursts (Count)
system.global_mem.mem_ctrl.dram.perBankRdBursts::5            0                       # Per bank write bursts (Count)
system.global_mem.mem_ctrl.dram.perBankRdBursts::6            0                       # Per bank write bursts (Count)
system.global_mem.mem_ctrl.dram.perBankRdBursts::7            0                       # Per bank write bursts (Count)
system.global_mem.mem_ctrl.dram.perBankRdBursts::8            0                       # Per bank write bursts (Count)
system.global_mem.mem_ctrl.dram.perBankRdBursts::9            0                       # Per bank write bursts (Count)
system.global_mem.mem_ctrl.dram.perBankRdBursts::10            0                       # Per bank write bursts (Count)
system.global_mem.mem_ctrl.dram.perBankRdBursts::11            0                       # Per bank write bursts (Count)
system.global_mem.mem_ctrl.dram.perBankRdBursts::12            0                       # Per bank write bursts (Count)
system.global_mem.mem_ctrl.dram.perBankRdBursts::13            0                       # Per bank write bursts (Count)
system.global_mem.mem_ctrl.dram.perBankRdBursts::14            0                       # Per bank write bursts (Count)
system.global_mem.mem_ctrl.dram.perBankRdBursts::15            0                       # Per bank write bursts (Count)
system.global_mem.mem_ctrl.dram.perBankWrBursts::0            0                       # Per bank write bursts (Count)
system.global_mem.mem_ctrl.dram.perBankWrBursts::1            0                       # Per bank write bursts (Count)
system.global_mem.mem_ctrl.dram.perBankWrBursts::2            0                       # Per bank write bursts (Count)
system.global_mem.mem_ctrl.dram.perBankWrBursts::3            0                       # Per bank write bursts (Count)
system.global_mem.mem_ctrl.dram.perBankWrBursts::4            0                       # Per bank write bursts (Count)
system.global_mem.mem_ctrl.dram.perBankWrBursts::5            0                       # Per bank write bursts (Count)
system.global_mem.mem_ctrl.dram.perBankWrBursts::6            0                       # Per bank write bursts (Count)
system.global_mem.mem_ctrl.dram.perBankWrBursts::7            0                       # Per bank write bursts (Count)
system.global_mem.mem_ctrl.dram.perBankWrBursts::8            0                       # Per bank write bursts (Count)
system.global_mem.mem_ctrl.dram.perBankWrBursts::9            0                       # Per bank write bursts (Count)
system.global_mem.mem_ctrl.dram.perBankWrBursts::10            0                       # Per bank write bursts (Count)
system.global_mem.mem_ctrl.dram.perBankWrBursts::11            0                       # Per bank write bursts (Count)
system.global_mem.mem_ctrl.dram.perBankWrBursts::12            0                       # Per bank write bursts (Count)
system.global_mem.mem_ctrl.dram.perBankWrBursts::13            0                       # Per bank write bursts (Count)
system.global_mem.mem_ctrl.dram.perBankWrBursts::14            0                       # Per bank write bursts (Count)
system.global_mem.mem_ctrl.dram.perBankWrBursts::15            0                       # Per bank write bursts (Count)
system.global_mem.mem_ctrl.dram.totQLat             0                       # Total ticks spent queuing (Tick)
system.global_mem.mem_ctrl.dram.totBusLat            0                       # Total ticks spent in databus transfers (Tick)
system.global_mem.mem_ctrl.dram.totMemAccLat            0                       # Total ticks spent from burst creation until serviced by the DRAM (Tick)
system.global_mem.mem_ctrl.dram.avgQLat           nan                       # Average queueing delay per DRAM burst ((Tick/Count))
system.global_mem.mem_ctrl.dram.avgBusLat          nan                       # Average bus latency per DRAM burst ((Tick/Count))
system.global_mem.mem_ctrl.dram.avgMemAccLat          nan                       # Average memory access latency per DRAM burst ((Tick/Count))
system.global_mem.mem_ctrl.dram.readRowHits            0                       # Number of row buffer hits during reads (Count)
system.global_mem.mem_ctrl.dram.writeRowHits            0                       # Number of row buffer hits during writes (Count)
system.global_mem.mem_ctrl.dram.readRowHitRate          nan                       # Row buffer hit rate for reads (Ratio)
system.global_mem.mem_ctrl.dram.writeRowHitRate          nan                       # Row buffer hit rate for writes (Ratio)
system.global_mem.mem_ctrl.dram.bytesRead            0                       # Total bytes read (Byte)
system.global_mem.mem_ctrl.dram.bytesWritten            0                       # Total bytes written (Byte)
system.global_mem.mem_ctrl.dram.avgRdBW             0                       # Average DRAM read bandwidth in MiBytes/s ((Byte/Second))
system.global_mem.mem_ctrl.dram.avgWrBW             0                       # Average DRAM write bandwidth in MiBytes/s ((Byte/Second))
system.global_mem.mem_ctrl.dram.peakBW       12800.00                       # Theoretical peak bandwidth in MiByte/s ((Byte/Second))
system.global_mem.mem_ctrl.dram.busUtil          0.00                       # Data bus utilization in percentage (Ratio)
system.global_mem.mem_ctrl.dram.busUtilRead         0.00                       # Data bus utilization in percentage for reads (Ratio)
system.global_mem.mem_ctrl.dram.busUtilWrite         0.00                       # Data bus utilization in percentage for writes (Ratio)
system.global_mem.mem_ctrl.dram.pageHitRate          nan                       # Row buffer hit rate, read and write combined (Ratio)
system.global_mem.mem_ctrl.dram.power_state.pwrStateResidencyTicks::UNDEFINED        22000                       # Cumulative time (in ticks) in various power states (Tick)
system.global_mem.mem_ctrl.dram.rank0.actEnergy            0                       # Energy for activate commands per rank (pJ) (Joule)
system.global_mem.mem_ctrl.dram.rank0.preEnergy            0                       # Energy for precharge commands per rank (pJ) (Joule)
system.global_mem.mem_ctrl.dram.rank0.readEnergy            0                       # Energy for read commands per rank (pJ) (Joule)
system.global_mem.mem_ctrl.dram.rank0.writeEnergy            0                       # Energy for write commands per rank (pJ) (Joule)
system.global_mem.mem_ctrl.dram.rank0.refreshEnergy            0                       # Energy for refresh commands per rank (pJ) (Joule)
system.global_mem.mem_ctrl.dram.rank0.actBackEnergy            0                       # Energy for active background per rank (pJ) (Joule)
system.global_mem.mem_ctrl.dram.rank0.preBackEnergy         8640                       # Energy for precharge background per rank (pJ) (Joule)
system.global_mem.mem_ctrl.dram.rank0.actPowerDownEnergy            0                       # Energy for active power-down per rank (pJ) (Joule)
system.global_mem.mem_ctrl.dram.rank0.prePowerDownEnergy            0                       # Energy for precharge power-down per rank (pJ) (Joule)
system.global_mem.mem_ctrl.dram.rank0.selfRefreshEnergy            0                       # Energy for self refresh per rank (pJ) (Joule)
system.global_mem.mem_ctrl.dram.rank0.totalEnergy         8640                       # Total energy per rank (pJ) (Joule)
system.global_mem.mem_ctrl.dram.rank0.averagePower   392.727273                       # Core power per rank (mW) (Watt)
system.global_mem.mem_ctrl.dram.rank0.totalIdleTime            0                       # Total Idle time Per DRAM Rank (Tick)
system.global_mem.mem_ctrl.dram.rank0.pwrStateTime::IDLE        22000                       # Time in different power states (Tick)
system.global_mem.mem_ctrl.dram.rank0.pwrStateTime::REF            0                       # Time in different power states (Tick)
system.global_mem.mem_ctrl.dram.rank0.pwrStateTime::SREF            0                       # Time in different power states (Tick)
system.global_mem.mem_ctrl.dram.rank0.pwrStateTime::PRE_PDN            0                       # Time in different power states (Tick)
system.global_mem.mem_ctrl.dram.rank0.pwrStateTime::ACT            0                       # Time in different power states (Tick)
system.global_mem.mem_ctrl.dram.rank0.pwrStateTime::ACT_PDN            0                       # Time in different power states (Tick)
system.global_mem.mem_ctrl.dram.rank1.actEnergy            0                       # Energy for activate commands per rank (pJ) (Joule)
system.global_mem.mem_ctrl.dram.rank1.preEnergy            0                       # Energy for precharge commands per rank (pJ) (Joule)
system.global_mem.mem_ctrl.dram.rank1.readEnergy            0                       # Energy for read commands per rank (pJ) (Joule)
system.global_mem.mem_ctrl.dram.rank1.writeEnergy            0                       # Energy for write commands per rank (pJ) (Joule)
system.global_mem.mem_ctrl.dram.rank1.refreshEnergy            0                       # Energy for refresh commands per rank (pJ) (Joule)
system.global_mem.mem_ctrl.dram.rank1.actBackEnergy            0                       # Energy for active background per rank (pJ) (Joule)
system.global_mem.mem_ctrl.dram.rank1.preBackEnergy         8640                       # Energy for precharge background per rank (pJ) (Joule)
system.global_mem.mem_ctrl.dram.rank1.actPowerDownEnergy            0                       # Energy for active power-down per rank (pJ) (Joule)
system.global_mem.mem_ctrl.dram.rank1.prePowerDownEnergy            0                       # Energy for precharge power-down per rank (pJ) (Joule)
system.global_mem.mem_ctrl.dram.rank1.selfRefreshEnergy            0                       # Energy for self refresh per rank (pJ) (Joule)
system.global_mem.mem_ctrl.dram.rank1.totalEnergy         8640                       # Total energy per rank (pJ) (Joule)
system.global_mem.mem_ctrl.dram.rank1.averagePower   392.727273                       # Core power per rank (mW) (Watt)
system.global_mem.mem_ctrl.dram.rank1.totalIdleTime            0                       # Total Idle time Per DRAM Rank (Tick)
system.global_mem.mem_ctrl.dram.rank1.pwrStateTime::IDLE        22000                       # Time in different power states (Tick)
system.global_mem.mem_ctrl.dram.rank1.pwrStateTime::REF            0                       # Time in different power states (Tick)
system.global_mem.mem_ctrl.dram.rank1.pwrStateTime::SREF            0                       # Time in different power states (Tick)
system.global_mem.mem_ctrl.dram.rank1.pwrStateTime::PRE_PDN            0                       # Time in different power states (Tick)
system.global_mem.mem_ctrl.dram.rank1.pwrStateTime::ACT            0                       # Time in different power states (Tick)
system.global_mem.mem_ctrl.dram.rank1.pwrStateTime::ACT_PDN            0                       # Time in different power states (Tick)
system.global_mem.mem_ctrl.power_state.pwrStateResidencyTicks::UNDEFINED        22000                       # Cumulative time (in ticks) in various power states (Tick)
system.global_membus.transDist::ReadResp            1                       # Transaction distribution (Count)
system.global_membus.transDist::ReadSharedReq            1                       # Transaction distribution (Count)
system.global_membus.transDist::InvalidateReq            1                       # Transaction distribution (Count)
system.global_membus.pktCount_system.caches0.mem_side_port::system.global_mem.mem_ctrl.port            1                       # Packet count per connected requestor and responder (Count)
system.global_membus.pktCount_system.caches0.mem_side_port::total            1                       # Packet count per connected requestor and responder (Count)
system.global_membus.pktCount_system.caches1.mem_side_port::system.global_mem.mem_ctrl.port            1                       # Packet count per connected requestor and responder (Count)
system.global_membus.pktCount_system.caches1.mem_side_port::total            1                       # Packet count per connected requestor and responder (Count)
system.global_membus.pktCount::total                2                       # Packet count per connected requestor and responder (Count)
system.global_membus.snoops                         1                       # Total snoops (Count)
system.global_membus.snoopTraffic                  64                       # Total snoop traffic (Byte)
system.global_membus.snoopFanout::samples            2                       # Request fanout histogram (Count)
system.global_membus.snoopFanout::mean       0.500000                       # Request fanout histogram (Count)
system.global_membus.snoopFanout::stdev      0.707107                       # Request fanout histogram (Count)
system.global_membus.snoopFanout::underflows            0      0.00%      0.00% # Request fanout histogram (Count)
system.global_membus.snoopFanout::0                 1     50.00%     50.00% # Request fanout histogram (Count)
system.global_membus.snoopFanout::1                 1     50.00%    100.00% # Request fanout histogram (Count)
system.global_membus.snoopFanout::2                 0      0.00%    100.00% # Request fanout histogram (Count)
system.global_membus.snoopFanout::overflows            0      0.00%    100.00% # Request fanout histogram (Count)
system.global_membus.snoopFanout::min_value            0                       # Request fanout histogram (Count)
system.global_membus.snoopFanout::max_value            1                       # Request fanout histogram (Count)
system.global_membus.snoopFanout::total             2                       # Request fanout histogram (Count)
system.global_membus.badaddr_responder.power_state.pwrStateResidencyTicks::UNDEFINED        22000                       # Cumulative time (in ticks) in various power states (Tick)
system.global_membus.power_state.pwrStateResidencyTicks::UNDEFINED        22000                       # Cumulative time (in ticks) in various power states (Tick)
system.global_membus.reqLayer0.occupancy         2000                       # Layer occupancy (ticks) (Tick)
system.global_membus.reqLayer0.utilization          0.1                       # Layer utilization (Ratio)
system.global_membus.respLayer1.occupancy         5000                       # Layer occupancy (ticks) (Tick)
system.global_membus.respLayer1.utilization          0.2                       # Layer utilization (Ratio)
system.global_membus.snoop_filter.totRequests            2                       # Total number of requests made to the snoop filter. (Count)
system.global_membus.snoop_filter.hitSingleRequests            1                       # Number of requests hitting in the snoop filter with a single holder of the requested data. (Count)
system.global_membus.snoop_filter.hitMultiRequests            0                       # Number of requests hitting in the snoop filter with multiple (>1) holders of the requested data. (Count)
system.global_membus.snoop_filter.totSnoops            0                       # Total number of snoops made to the snoop filter. (Count)
system.global_membus.snoop_filter.hitSingleSnoops            0                       # Number of snoops hitting in the snoop filter with a single holder of the requested data. (Count)
system.global_membus.snoop_filter.hitMultiSnoops            0                       # Number of snoops hitting in the snoop filter with multiple (>1) holders of the requested data. (Count)
system.simplePEs0.power_state.pwrStateResidencyTicks::UNDEFINED        22000                       # Cumulative time (in ticks) in various power states (Tick)
system.simplePEs1.power_state.pwrStateResidencyTicks::UNDEFINED        22000                       # Cumulative time (in ticks) in various power states (Tick)
system.workload.inst.arm                            0                       # number of arm instructions executed (Count)
system.workload.inst.quiesce                        0                       # number of quiesce instructions executed (Count)

---------- End Simulation Statistics   ----------
